Distrib/IEEETestCases/ShortCircuitCases/123Bus/ieee123_VLN_Node.Txt

NODE-GROUND VOLTAGES BY BUS & NODE

Bus      Node    V (kV)    Angle      p.u.   Base kV

150 ....  1     2.4018 /_    0.0   0.99999     4.160
   -      2     2.4018 /_ -120.0   0.99999     4.160
   -      3     2.4018 /_  120.0   0.99999     4.160
150R ...  1     2.4918 /_    0.0    1.0375     4.160
   -      2     2.4918 /_ -120.0    1.0375     4.160
   -      3     2.4918 /_  120.0    1.0375     4.160
149 ....  1     2.4918 /_    0.0    1.0375     4.160
   -      2     2.4918 /_ -120.0    1.0375     4.160
   -      3     2.4918 /_  120.0    1.0375     4.160
1 ......  1     2.4617 /_   -0.6     1.025     4.160
   -      2      2.486 /_ -120.3    1.0351     4.160
   -      3     2.4704 /_  119.6    1.0286     4.160
2 ......  2     2.4854 /_ -120.3    1.0348     4.160
3 ......  3     2.4665 /_  119.6    1.0269     4.160
7 ......  1     2.4393 /_   -1.1    1.0156     4.160
   -      2     2.4818 /_ -120.6    1.0333     4.160
   -      3     2.4567 /_  119.4    1.0229     4.160
4 ......  3     2.4653 /_  119.6    1.0264     4.160
5 ......  3     2.4634 /_  119.6    1.0256     4.160
6 ......  3     2.4617 /_  119.6     1.025     4.160
8 ......  1     2.4247 /_   -1.4    1.0096     4.160
   -      2     2.4789 /_ -120.7    1.0321     4.160
   -      3     2.4476 /_  119.2    1.0191     4.160
12 .....  2     2.4782 /_ -120.7    1.0318     4.160
9 ......  1     2.4212 /_   -1.5    1.0081     4.160
13 .....  1     2.4055 /_   -1.9    1.0015     4.160
   -      2     2.4737 /_ -121.0    1.0299     4.160
   -      3      2.434 /_  118.9    1.0134     4.160
9R .....  1     2.4212 /_   -1.5    1.0081     4.160
14 .....  1     2.4171 /_   -1.5    1.0064     4.160
34 .....  3     2.4316 /_  118.9    1.0124     4.160
18 .....  1     2.3838 /_   -2.3   0.99251     4.160
   -      2     2.4637 /_ -121.2    1.0258     4.160
   -      3     2.4161 /_  118.8     1.006     4.160
11 .....  1     2.4155 /_   -1.5    1.0057     4.160
10 .....  1     2.4163 /_   -1.5    1.0061     4.160
15 .....  3     2.4307 /_  118.9     1.012     4.160
16 .....  3     2.4283 /_  118.9     1.011     4.160
17 .....  3     2.4296 /_  118.9    1.0116     4.160
19 .....  1     2.3806 /_   -2.3   0.99119     4.160
21 .....  1     2.3825 /_   -2.3   0.99196     4.160
   -      2     2.4639 /_ -121.2    1.0259     4.160
   -      3     2.4133 /_  118.8    1.0048     4.160
20 .....  1     2.3786 /_   -2.3   0.99033     4.160
22 .....  2     2.4605 /_ -121.2    1.0244     4.160
23 .....  1     2.3815 /_   -2.4   0.99155     4.160
   -      2     2.4648 /_ -121.2    1.0262     4.160
   -      3     2.4106 /_  118.8    1.0037     4.160
24 .....  3     2.4071 /_  118.8    1.0022     4.160
25 .....  1     2.3799 /_   -2.5   0.99088     4.160
   -      2     2.4659 /_ -121.2    1.0267     4.160
   -      3     2.4085 /_  118.8    1.0028     4.160
25R ....  1     2.4096 /_   -2.5    1.0033     4.160
   -      3     2.4085 /_  118.8    1.0028     4.160
26 .....  1      2.409 /_   -2.5     1.003     4.160
   -      3     2.4073 /_  118.8    1.0023     4.160
28 .....  1      2.379 /_   -2.5   0.99051     4.160
   -      2     2.4664 /_ -121.2    1.0269     4.160
   -      3     2.4076 /_  118.8    1.0024     4.160
27 .....  1     2.4081 /_   -2.5    1.0027     4.160
   -      3     2.4072 /_  118.8    1.0023     4.160
31 .....  3     2.4059 /_  118.8    1.0017     4.160
33 .....  1      2.405 /_   -2.5    1.0013     4.160
29 .....  1     2.3786 /_   -2.5   0.99035     4.160
   -      2     2.4668 /_ -121.2    1.0271     4.160
   -      3     2.4066 /_  118.8     1.002     4.160
30 .....  1     2.3792 /_   -2.5   0.99062     4.160
   -      2     2.4667 /_ -121.2     1.027     4.160
   -      3     2.4055 /_  118.8    1.0015     4.160
250 ....  1     2.3792 /_   -2.5   0.99062     4.160
   -      2     2.4667 /_ -121.2     1.027     4.160
   -      3     2.4055 /_  118.8    1.0015     4.160
32 .....  3     2.4049 /_  118.8    1.0013     4.160
35 .....  1     2.3771 /_   -2.4   0.98974     4.160
   -      2     2.4576 /_ -121.3    1.0233     4.160
   -      3     2.4136 /_  118.8    1.0049     4.160
36 .....  1     2.3749 /_   -2.4   0.98881     4.160
   -      2     2.4565 /_ -121.4    1.0228     4.160
40 .....  1     2.3735 /_   -2.4   0.98822     4.160
   -      2     2.4549 /_ -121.4    1.0221     4.160
   -      3     2.4111 /_  118.7    1.0039     4.160
37 .....  1      2.373 /_   -2.4   0.98803     4.160
38 .....  2     2.4549 /_ -121.4    1.0221     4.160
39 .....  2     2.4539 /_ -121.4    1.0217     4.160
41 .....  3       2.41 /_  118.7    1.0034     4.160
42 .....  1     2.3697 /_   -2.4   0.98663     4.160
   -      2     2.4522 /_ -121.4     1.021     4.160
   -      3     2.4089 /_  118.7     1.003     4.160
43 .....  2      2.449 /_ -121.4    1.0196     4.160
44 .....  1      2.367 /_   -2.5   0.98553     4.160
   -      2     2.4505 /_ -121.4    1.0203     4.160
   -      3      2.407 /_  118.7    1.0022     4.160
45 .....  1     2.3658 /_   -2.5     0.985     4.160
47 .....  1     2.3645 /_   -2.5    0.9845     4.160
   -      2     2.4479 /_ -121.5    1.0192     4.160
   -      3     2.4046 /_  118.6    1.0012     4.160
46 .....  1     2.3648 /_   -2.5    0.9846     4.160
48 .....  1     2.3639 /_   -2.5   0.98422     4.160
   -      2     2.4472 /_ -121.5    1.0189     4.160
   -      3      2.404 /_  118.6    1.0009     4.160
49 .....  1     2.3639 /_   -2.5   0.98422     4.160
   -      2     2.4466 /_ -121.5    1.0187     4.160
   -      3     2.4038 /_  118.6    1.0008     4.160
50 .....  1     2.3638 /_   -2.5    0.9842     4.160
   -      2     2.4466 /_ -121.5    1.0187     4.160
   -      3      2.403 /_  118.6    1.0005     4.160
51 .....  1     2.3634 /_   -2.5   0.98404     4.160
   -      2     2.4468 /_ -121.5    1.0188     4.160
   -      3     2.4029 /_  118.6    1.0005     4.160
151 ....  1     2.3634 /_   -2.5   0.98404     4.160
   -      2     2.4468 /_ -121.5    1.0188     4.160
   -      3     2.4029 /_  118.6    1.0005     4.160
52 .....  1      2.391 /_   -2.2    0.9955     4.160
   -      2     2.4707 /_ -121.2    1.0287     4.160
   -      3     2.4262 /_  118.7    1.0101     4.160
53 .....  1     2.3844 /_   -2.4   0.99277     4.160
   -      2     2.4688 /_ -121.3    1.0279     4.160
   -      3     2.4223 /_  118.5    1.0086     4.160
54 .....  1     2.3807 /_   -2.5   0.99123     4.160
   -      2     2.4675 /_ -121.4    1.0274     4.160
   -      3       2.42 /_  118.4    1.0076     4.160
55 .....  1     2.3802 /_   -2.5   0.99102     4.160
   -      2     2.4673 /_ -121.4    1.0273     4.160
   -      3     2.4201 /_  118.5    1.0076     4.160
57 .....  1     2.3731 /_   -2.8   0.98806     4.160
   -      2     2.4607 /_ -121.6    1.0245     4.160
   -      3     2.4137 /_  118.2     1.005     4.160
56 .....  1     2.3801 /_   -2.5   0.99099     4.160
   -      2     2.4669 /_ -121.4    1.0271     4.160
   -      3     2.4203 /_  118.5    1.0077     4.160
58 .....  2     2.4592 /_ -121.6    1.0239     4.160
60 .....  1     2.3573 /_   -3.5   0.98148     4.160
   -      2     2.4487 /_ -122.0    1.0195     4.160
   -      3     2.3992 /_  117.8   0.99892     4.160
59 .....  2     2.4584 /_ -121.6    1.0236     4.160
61 .....  1     2.3573 /_   -3.5   0.98148     4.160
   -      2     2.4487 /_ -122.0    1.0195     4.160
   -      3     2.3992 /_  117.8   0.99892     4.160
62 .....  1     2.3554 /_   -3.5   0.98071     4.160
   -      2      2.446 /_ -122.0    1.0184     4.160
   -      3     2.3942 /_  117.8   0.99686     4.160
63 .....  1      2.354 /_   -3.5    0.9801     4.160
   -      2     2.4439 /_ -122.0    1.0175     4.160
   -      3     2.3918 /_  117.8   0.99586     4.160
64 .....  1     2.3532 /_   -3.5   0.97978     4.160
   -      2     2.4394 /_ -121.9    1.0156     4.160
   -      3     2.3866 /_  117.7   0.99369     4.160
65 .....  1     2.3516 /_   -3.5   0.97909     4.160
   -      2     2.4386 /_ -121.9    1.0153     4.160
   -      3     2.3794 /_  117.7   0.99069     4.160
66 .....  1     2.3521 /_   -3.5   0.97933     4.160
   -      2     2.4391 /_ -121.9    1.0156     4.160
   -      3     2.3758 /_  117.7   0.98917     4.160
67 .....  1     2.4705 /_   -3.8    1.0286     4.160
   -      2     2.4771 /_ -122.2    1.0314     4.160
   -      3     2.4689 /_  117.6     1.028     4.160
68 .....  1     2.4668 /_   -3.8    1.0271     4.160
72 .....  1     2.4714 /_   -3.9     1.029     4.160
   -      2     2.4749 /_ -122.3    1.0305     4.160
   -      3     2.4684 /_  117.5    1.0277     4.160
97 .....  1     2.4681 /_   -3.8    1.0276     4.160
   -      2     2.4759 /_ -122.2    1.0309     4.160
   -      3     2.4672 /_  117.6    1.0272     4.160
69 .....  1     2.4626 /_   -3.8    1.0253     4.160
70 .....  1     2.4596 /_   -3.8    1.0241     4.160
71 .....  1     2.4579 /_   -3.9    1.0234     4.160
73 .....  3     2.4632 /_  117.5    1.0256     4.160
76 .....  1     2.4712 /_   -3.9    1.0289     4.160
   -      2     2.4737 /_ -122.4    1.0299     4.160
   -      3     2.4699 /_  117.5    1.0284     4.160
74 .....  3     2.4588 /_  117.5    1.0237     4.160
75 .....  3     2.4563 /_  117.4    1.0227     4.160
77 .....  1      2.474 /_   -4.0    1.0301     4.160
   -      2     2.4765 /_ -122.5    1.0311     4.160
   -      3      2.472 /_  117.4    1.0292     4.160
86 .....  1     2.4691 /_   -3.9     1.028     4.160
   -      2     2.4695 /_ -122.5    1.0282     4.160
   -      3     2.4733 /_  117.4    1.0298     4.160
78 .....  1     2.4747 /_   -4.0    1.0304     4.160
   -      2     2.4774 /_ -122.5    1.0315     4.160
   -      3     2.4724 /_  117.4    1.0294     4.160
79 .....  1      2.474 /_   -4.0    1.0301     4.160
   -      2     2.4778 /_ -122.5    1.0316     4.160
   -      3     2.4723 /_  117.4    1.0293     4.160
80 .....  1     2.4797 /_   -4.1    1.0324     4.160
   -      2     2.4815 /_ -122.5    1.0332     4.160
   -      3     2.4744 /_  117.3    1.0302     4.160
81 .....  1     2.4815 /_   -4.1    1.0332     4.160
   -      2     2.4835 /_ -122.5     1.034     4.160
   -      3     2.4749 /_  117.2    1.0304     4.160
82 .....  1     2.4836 /_   -4.1    1.0341     4.160
   -      2     2.4865 /_ -122.6    1.0353     4.160
   -      3     2.4767 /_  117.2    1.0312     4.160
84 .....  3     2.4687 /_  117.2    1.0279     4.160
83 .....  1     2.4864 /_   -4.1    1.0352     4.160
   -      2     2.4892 /_ -122.6    1.0364     4.160
   -      3     2.4787 /_  117.2     1.032     4.160
85 .....  3     2.4657 /_  117.2    1.0266     4.160
87 .....  1     2.4678 /_   -4.0    1.0275     4.160
   -      2     2.4675 /_ -122.6    1.0274     4.160
   -      3     2.4746 /_  117.4    1.0303     4.160
88 .....  1     2.4677 /_   -4.0    1.0274     4.160
89 .....  1     2.4668 /_   -4.0    1.0271     4.160
   -      2     2.4669 /_ -122.7    1.0271     4.160
   -      3     2.4756 /_  117.4    1.0307     4.160
90 .....  2     2.4667 /_ -122.7     1.027     4.160
91 .....  1     2.4663 /_   -4.0    1.0269     4.160
   -      2     2.4661 /_ -122.7    1.0268     4.160
   -      3     2.4761 /_  117.4    1.0309     4.160
92 .....  3     2.4759 /_  117.3    1.0308     4.160
93 .....  1     2.4655 /_   -4.0    1.0265     4.160
   -      2     2.4657 /_ -122.7    1.0266     4.160
   -      3     2.4763 /_  117.4     1.031     4.160
94 .....  1     2.4638 /_   -4.0    1.0258     4.160
95 .....  1     2.4654 /_   -4.0    1.0265     4.160
   -      2     2.4648 /_ -122.7    1.0263     4.160
   -      3     2.4767 /_  117.4    1.0312     4.160
96 .....  2     2.4642 /_ -122.7     1.026     4.160
98 .....  1     2.4676 /_   -3.8    1.0274     4.160
   -      2     2.4753 /_ -122.2    1.0306     4.160
   -      3     2.4667 /_  117.6     1.027     4.160
99 .....  1     2.4683 /_   -3.8    1.0277     4.160
   -      2     2.4733 /_ -122.2    1.0298     4.160
   -      3     2.4659 /_  117.6    1.0267     4.160
100 ....  1     2.4688 /_   -3.8    1.0279     4.160
   -      2     2.4731 /_ -122.2    1.0297     4.160
   -      3     2.4649 /_  117.6    1.0263     4.160
450 ....  1     2.4688 /_   -3.8    1.0279     4.160
   -      2     2.4731 /_ -122.2    1.0297     4.160
   -      3     2.4649 /_  117.6    1.0263     4.160
101 ....  3     2.4659 /_  117.6    1.0267     4.160
   -      1     2.4662 /_   -3.9    1.0268     4.160
   -      2     2.4752 /_ -122.2    1.0306     4.160
102 ....  3     2.4624 /_  117.6    1.0252     4.160
105 ....  1      2.463 /_   -3.9    1.0255     4.160
   -      2     2.4749 /_ -122.3    1.0304     4.160
   -      3     2.4665 /_  117.6     1.027     4.160
103 ....  3     2.4584 /_  117.6    1.0236     4.160
104 ....  3     2.4541 /_  117.5    1.0218     4.160
106 ....  2     2.4721 /_ -122.3    1.0293     4.160
108 ....  1     2.4594 /_   -4.0     1.024     4.160
   -      2     2.4764 /_ -122.3    1.0311     4.160
   -      3     2.4662 /_  117.7    1.0268     4.160
107 ....  2     2.4686 /_ -122.3    1.0278     4.160
109 ....  1     2.4495 /_   -4.0    1.0199     4.160
300 ....  1     2.4594 /_   -4.0     1.024     4.160
   -      2     2.4764 /_ -122.3    1.0311     4.160
   -      3     2.4662 /_  117.7    1.0268     4.160
110 ....  1     2.4448 /_   -4.1    1.0179     4.160
111 ....  1      2.443 /_   -4.1    1.0172     4.160
112 ....  1     2.4432 /_   -4.1    1.0172     4.160
113 ....  1     2.4382 /_   -4.1    1.0151     4.160
114 ....  1     2.4371 /_   -4.1    1.0147     4.160
135 ....  1     2.3838 /_   -2.3   0.99251     4.160
   -      2     2.4637 /_ -121.2    1.0258     4.160
   -      3     2.4161 /_  118.8     1.006     4.160
152 ....  1     2.4055 /_   -1.9    1.0015     4.160
   -      2     2.4737 /_ -121.0    1.0299     4.160
   -      3      2.434 /_  118.9    1.0134     4.160
160R ...  1     2.4752 /_   -3.5    1.0306     4.160
   -      2     2.4793 /_ -122.0    1.0323     4.160
   -      3     2.4742 /_  117.8    1.0301     4.160
197 ....  1     2.4681 /_   -3.8    1.0276     4.160
   -      2     2.4759 /_ -122.2    1.0309     4.160
   -      3     2.4672 /_  117.6    1.0272     4.160
160 ....  1     2.3573 /_   -3.5   0.98148     4.160
   -      2     2.4487 /_ -122.0    1.0195     4.160
   -      3     2.3992 /_  117.8   0.99892     4.160
61S ....  1     2.3573 /_   -3.5   0.98148     4.160
   -      2     2.4487 /_ -122.0    1.0195     4.160
   -      3     2.3992 /_  117.8   0.99892     4.160
300_OPEN  1     2.3634 /_   -2.5   0.98404     4.160
   -      2     2.4468 /_ -121.5    1.0188     4.160
   -      3     2.4029 /_  118.6    1.0005     4.160
94_OPEN   1     2.3807 /_   -2.5   0.99123     4.160
610 ....  1    0.27422 /_   -2.7   0.98949     0.480
   -      2    0.27806 /_ -122.0    1.0034     0.480
   -      3    0.27906 /_  117.0     1.007     0.480
